/---------------------------------------------------------------------/
/                   TELEMAC3D Version v7p3                            /
/---------------------------------------------------------------------/
/ Reference level is mean sea level

TITLE = 'Rotating grid'

/PARALLEL PROCESSORS = 32
DEBUGGER = 0

/---------------------------------------------------------------------/
/                        INPUT-OUTPUT, FILES                          /
/---------------------------------------------------------------------/

GEOMETRY FILE            = 'geo_rotating_cylinder_v2.slf'
BOUNDARY CONDITIONS FILE = 'bc_rotating_cylinder_v2.cli'
FORTRAN FILE             = 'user_fortran'

2D RESULT FILE           = 'r2D_rotating_cylinder_v2.slf'
3D RESULT FILE           = 'r3D_rotating_cylinder_v2.slf'

/----------------------------------------------------------------------/
/                      RESTART FILE                                    /
/----------------------------------------------------------------------/

/PREVIOUS COMPUTATION FILE = ''
/PREVIOUS COMPUTATION FILE FORMAT = 'SERAFIND'
/COMPUTATION CONTINUED     = YES
/INITIAL TIME SET TO ZERO  = NO

/RESTART MODE              = YES
/RESTART FILE              = ''
/RESTART FILE FORMAT       = 'SERAFIND'
/RECORD NUMBER FOR RESTART = 0

/-----------------------------------------
/ COUPLING WITH GAIA
/-----------------------------------------
COUPLING WITH = GAIA
GAIA STEERING FILE = gaia_rotating_cyliner_v2.cas

/---------------------------------------------------------------------/
/            INPUT-OUTPUT,TIME STEP, GRAPHICS AND LISTING             /
/---------------------------------------------------------------------/

TIME STEP             = 0.1
NUMBER OF TIME STEPS  = 72000

NUMBER OF FIRST TIME STEP FOR GRAPHIC PRINTOUTS   = 0
NUMBER OF FIRST TIME STEP FOR LISTING PRINTOUTS   = 0
GRAPHIC PRINTOUT PERIOD   = 600
LISTING PRINTOUT PERIOD   = 600
VARIABLES FOR 2D GRAPHIC PRINTOUTS  = U,V,S,H,US,HD,EF,DF,TA*
VARIABLES FOR 3D GRAPHIC PRINTOUTS  = Z,U,V,W,TA*,P1,P2,P3

ORIGINAL DATE OF TIME     = 2019;08;02
ORIGINAL HOUR OF TIME     = 00;00;00

MASS-BALANCE     = YES
INFORMATION ABOUT MASS-BALANCE FOR EACH LISTING PRINTOUT = YES

/NUMBER OF BOTTOM SMOOTHINGS   = 1
/NUMBER OF 2D PRIVATE ARRAYS   = 1
/NAMES OF 2D PRIVATE VARIABLES = 'SALINITY        PSU             '

/---------------------------------------------------------------------/
/                             FRICTION                                /
/---------------------------------------------------------------------/

LAW OF BOTTOM FRICTION                  = 5  / Sf in iFLow
FRICTION COEFFICIENT FOR THE BOTTOM     = 0.001

LAW OF FRICTION ON LATERAL BOUNDARIES   = 5  / no friction
FRICTION COEFFICIENT FOR LATERAL SOLID BOUNDARIES  = 0.001

/---------------------------------------------------------------------/
/                 EQUATIONS, BOUNDARY CONDITIONS                      /
/---------------------------------------------------------------------/

VELOCITY PROFILES            = 1;1
PRESCRIBED FLOWRATES         = 0.0;0.0
PRESCRIBED ELEVATIONS        = 0.5;0.5
OPTION FOR LIQUID BOUNDARIES = 1;1

/---------------------------------------------------------------------/
/                 EQUATIONS, INITIAL CONDITIONS                       /
/---------------------------------------------------------------------/

NUMBER OF HORIZONTAL LEVELS   = 6
MESH TRANSFORMATION           = 1 /sigma transformation

INITIAL CONDITIONS            = 'CONSTANT ELEVATION'
INITIAL ELEVATION             = 0.5

/---------------------------------------------------------------------/
/                               TURBULENCE                            /
/---------------------------------------------------------------------/

HORIZONTAL TURBULENCE MODEL                          = 3
VERTICAL TURBULENCE MODEL                            = 3
COEFFICIENT FOR HORIZONTAL DIFFUSION OF VELOCITIES   = 1.E-6
COEFFICIENT FOR VERTICAL DIFFUSION OF VELOCITIES     = 1.E-6

OPTION FOR THE BOUNDARY CONDITIONS OF K-EPSILON = 2

/MIXING LENGTH MODEL    = 1 / in case of using ML model
/DAMPING FUNCTION       = 3  / in case of using ML model

/---------------------------------------------------------------------/
/                               CORIOLIS                              /
/---------------------------------------------------------------------/

CORIOLIS                 = NO
CORIOLIS COEFFICIENT     = 1.13522E-04

/----------------------------------------------------------------------/
/                       TIDAL FLATS                                    /
/----------------------------------------------------------------------/

TIDAL FLATS                                 = NO

OPTION FOR THE TREATMENT OF TIDAL FLATS     = 1
TREATMENT OF NEGATIVE DEPTHS                = 1
MINIMAL VALUE FOR DEPTH                     = -1000

/TREATMENT ON TIDAL FLATS FOR VELOCITIES     = 0 
/TREATMENT ON TIDAL FLATS FOR K-EPSILON      = 0  
/TREATMENT ON TIDAL FLATS FOR TRACERS        = 0

THRESHOLD FOR VISCOSITY CORRECTION ON TIDAL FLATS = 0.2  /default vlaue
BYPASS VOID VOLUMES = NO

/----------------------------------------------------------------------/
/                           WIND                                       /
/----------------------------------------------------------------------/

WIND                              = NO
OPTION FOR WIND                   = 2
COEFFICIENT OF WIND INFLUENCE     = 0.565E-6

/----------------------------------------------------------------------/
/                           TRACERS                                    /
/----------------------------------------------------------------------/

NUMBER OF TRACERS           = 0
/NAMES OF TRACERS            = 'SALINITY        PSU             '

INITIAL VALUES OF TRACERS   = 0.02;0.001;0.001;0.02;0.0878
PRESCRIBED TRACERS VALUES   = 
0.02;0.001;0.001;0.02;0.0878;0.02;0.001;0.001;0.02;0.0878

/AVERAGE WATER DENSITY       = 1025
/DENSITY LAW                 = 2 /variation according to salinity

/COEFFICIENT FOR VERTICAL DIFFUSION OF TRACERS   =1.E-6  
/COEFFICIENT FOR HORIZONTAL DIFFUSION OF TRACERS =1.E-6 

/TREATMENT OF FLUXES AT THE BOUNDARIES = 1;1
/TRACERS VERTICAL PROFILES = 1;1

/----------------------------------------------------------------------/
/                           NUMERICAL SETUP                            /
/----------------------------------------------------------------------/

NON-HYDROSTATIC VERSION   = YES

SUPG OPTION               = 1;0;1;1

/ The following keywords to be used with NON-HYDROSTATIC VERSION

SOLVER FOR PPE                                      = 1
MAXIMUM NUMBER OF ITERATIONS FOR PPE                = 204
ACCURACY FOR PPE                                    = 1.E-6
PRECONDITIONING FOR PPE                             = 2

/----------------------------------------------------------------------/
/                           ADVECTION                                  /
/----------------------------------------------------------------------/

ADVECTION STEP                       = YES

SCHEME FOR ADVECTION OF VELOCITIES   = 1
SCHEME FOR ADVECTION OF DEPTH        = 5   
SCHEME FOR ADVECTION OF TRACERS      = 1  
SCHEME FOR ADVECTION OF K-EPSILON    = 1

NUMBER OF SUB ITERATIONS FOR NON LINEARITIES    = 1

/----------------------------------------------------------------------/
/                           DIFFUSION                                  /
/----------------------------------------------------------------------/

SCHEME FOR DIFFUSION OF VELOCITIES              = 1  /default implicit (0 value cancels diffusion)
SCHEME FOR DIFFUSION OF TRACERS                 = 1
SCHEME FOR DIFFUSION OF K-EPSILON               = 1

/---------------------------------------------------------------------/
/                         PROPAGATION                                 /
/---------------------------------------------------------------------/

LINEARIZED PROPAGATION                          = NO
MEAN DEPTH FOR LINEARIZATION                    = 0

FREE SURFACE GRADIENT COMPATIBILITY             = 0.9     /only used with wave equation
DYNAMIC PRESSURE IN WAVE EQUATION               = NO

/---------------------------------------------------------------------/
/                      NUMERICAL PARAMETERS                           /
/---------------------------------------------------------------------/

IMPLICITATION FOR VELOCITIES      = 0.55
IMPLICITATION FOR DEPTH           = 0.55
IMPLICITATION FOR DIFFUSION       = 1

SOLVER FOR DIFFUSION OF VELOCITIES   = 1
SOLVER FOR PROPAGATION               = 1
SOLVER FOR DIFFUSION OF TRACERS      = 1
SOLVER FOR DIFFUSION OF K-EPSILON    = 1

ACCURACY FOR DIFFUSION OF VELOCITIES = 1.E-8
ACCURACY FOR PROPAGATION             = 1.E-8
ACCURACY FOR DIFFUSION OF TRACERS    = 1.E-8
ACCURACY FOR DIFFUSION OF K-EPSILON  = 1.E-8

MAXIMUM NUMBER OF ITERATIONS FOR DIFFUSION OF VELOCITIES = 101
MAXIMUM NUMBER OF ITERATIONS FOR PROPAGATION             = 201
MAXIMUM NUMBER OF ITERATIONS FOR DIFFUSION OF TRACERS    = 102
MAXIMUM NUMBER OF ITERATIONS FOR DIFFUSION OF K-EPSILON  = 202
MAXIMUM NUMBER OF ITERATIONS FOR ADVECTION SCHEMES       = 20 /for schemes 13 and 14

PRECONDITIONING FOR DIFFUSION OF VELOCITIES   = 2
PRECONDITIONING FOR PROPAGATION               = 2
PRECONDITIONING FOR DIFFUSION OF K-EPSILON    = 2
PRECONDITIONING FOR DIFFUSION OF TRACERS      = 2

/ the higher to 1 the mass lumping parameter the more diagonal 
/ the result matrix and the faster the computation, but the more the results are smoothened
MASS-LUMPING FOR DEPTH         = 1 
MASS-LUMPING FOR VELOCITIES    = 1 
MASS-LUMPING FOR DIFFUSION     = 1 

INITIAL GUESS FOR DEPTH        = 1

MATRIX STORAGE                 = 3 

VELOCITY PROJECTED ON SOLID LATERAL BOUNDARIES = YES
VELOCITY PROJECTED ON BOTTOM                   = YES 

&FIN