/----------------------------------------------------------------------
/
/ This case validates the thermal budget processes
/   of the KHIONE module
/
/ Steering file for the hydrodynamics: TELEMAC-2D
/
 TITLE = 'THERMAL BUDGET PROCESSES IN A BOX'
/
/----------------------------------------------------------------------
/  FILES
/----------------------------------------------------
/
 GEOMETRY FILE                = 'geo_thermic.slf'
 BOUNDARY CONDITIONS FILE     = 'geo_thermic.cli'
 RESULTS FILE                 = 'r2d_thermic.slf'
/
/----------------------------------------------------------------------
/  GENERAL INFORMATIONS - OUTPUTS
/----------------------------------------------------
/
 VARIABLES FOR GRAPHIC PRINTOUTS  = 'U,V,H,S,Q,T1'
/
 GRAPHIC PRINTOUT PERIOD          = 6
 LISTING PRINTOUT PERIOD          = 300
 MASS-BALANCE                     = YES
 TIME STEP                        = 300.
 NUMBER OF TIME STEPS             = 288
 INFORMATION ABOUT SOLVER         = YES
/
/----------------------------------------------------------------------
/  TRACER(S)
/----------------------------------------------------
/
 NUMBER OF TRACERS = 1
 NAMES OF TRACERS = 'TEMPERATURE      oC             '
 DIFFUSION OF TRACERS                 = NO
 COEFFICIENT FOR DIFFUSION OF TRACERS = 0.
/
/----------------------------------------------------------------------
/  INITIAL CONDITIONS
/----------------------------------------------------
/
 ORIGINAL DATE OF TIME      = 2016;12;2
 ORIGINAL HOUR OF TIME      = 0;0;0
/
 COMPUTATION CONTINUED      = NO
 INITIAL CONDITIONS         = 'CONSTANT ELEVATION'
 INITIAL ELEVATION          = 1.
/
 INITIAL VALUES OF TRACERS  = 1.
/
/----------------------------------------------------------------------
/  PHYSICAL PARAMETERS
/----------------------------------------------------
/
 ASCII ATMOSPHERIC DATA FILE  = 't2d_meteo_stlaurent.lqd'
/
 LAW OF BOTTOM FRICTION           = 0
 LATITUDE OF ORIGIN POINT         = 44.73
/
/----------------------------------------------------------------------
/  NUMERICAL PARAMETERS
/----------------------------------------------------
/
/ SOLVER FOR DIFFUSION OF TRACERS    =  1
/ MAXIMUM NUMBER OF ITERATIONS FOR DIFFUSION OF TRACERS = 1200
/ ACCURACY FOR DIFFUSION OF TRACERS = 1.E-10
 TIDAL FLATS                       = NO
/ ADVECTION OF U AND V              = NO
/ ADVECTION OF H                    = NO
/ ADVECTION OF TRACERS              = YES
/ TYPE OF ADVECTION                 = 1
/ DIFFUSION OF VELOCITY              =NO
 CONTINUITY CORRECTION             = YES
/
/----------------------------------------------------------------------
/  THERMIC PROCESS
/----------------------------------------------------
/
/ NOTE:
/   YOU NEED WAQTEL TO INITIATE SOME OF THE WATER PROPERTIES
/   BUT YOU DO NOT NEED ANY OF ITS WAQTEL PROCESSES
/
 COUPLING WITH          = 'WAQTEL;KHIONE'
/
 WAQTEL STEERING FILE   = 'waq_thermic.cas'
 WATER QUALITY PROCESS  = 1
/
 KHIONE STEERING FILE   = 'ice_thermic.cas'
 ICE PROCESSES  = 2
/
/----------------------------------------------------------------------
/
