/----------------------------------------------------------------------
/
/ This case validates the thermic process
/   of newly added the KHIONE module
/
/ Steering file for the water quality module: WAQTEL
/
/ TITLE = 'Thermic process in a box'
/
/----------------------------------------------------------------------
/  FILES
/----------------------------------------------------
/
 GEOMETRY FILE             = 'geo_thermic.slf'
 BOUNDARY CONDITIONS FILE  = 'geo_thermic.cli'
/
/----------------------------------------------------------------------
/  WATER QUALITY PROCESS = 1
/  NO WATER QUALITY PROCESS ACTIVATED
/  ( THE THERMAL EXCHANGES ARE DEALT WITH BY KHIONE )
/----------------------------------------------------
/
 WATER DENSITY                 = 1000.
 KINEMATIC WATER VISCOSITY     = 1.E-6
/
/ 4: MODEL WITH COMPLETE BALANCE WITH ICE
 ATMOSPHERE-WATER EXCHANGE MODEL = 4
/
/ DIFFERENT DEFAULT BETWEEN TELEMAC-2D AND KHIONE
 WATER SPECIFIC HEAT           = 4180.
 AIR SPECIFIC HEAT             = 1002.
/
/----------------------------------------------------------------------
/
