/-------------------------------------------------------------------/
/                        TELEMAC-2D                                 /
/-------------------------------------------------------------------/
/
/----------------------------------------------
/  COMPUTER INFORMATIONS
/----------------------------------------------
/
FORTRAN FILE                    = 'user_fortran'
GEOMETRY FILE                   = geo_bump.slf
BOUNDARY CONDITIONS FILE        = geo_bump_flu.cli
RESULTS FILE                    = r2d_bump.slf
/
/----------------------------------------------
/  GENERAL INFORMATIONS - OUTPUTS
/----------------------------------------------
/
VARIABLES FOR GRAPHIC PRINTOUTS = 'U,V,S,B,Q,F,H'
/
GRAPHIC PRINTOUT PERIOD         = 1000
LISTING PRINTOUT PERIOD         = 1000
/
DURATION                        = 120
VARIABLE TIME-STEP              = YES
DESIRED COURANT NUMBER          = 0.9
MASS-BALANCE                    = YES
/
/----------------------------------------------
/  INITIAL CONDITIONS
/----------------------------------------------
/
INITIAL CONDITIONS              = 'PARTICULAR'
/
/----------------------------------------------
/  BOUNDARY CONDITIONS
/----------------------------------------------
/
PRESCRIBED FLOWRATES            = 0.;1.5
PRESCRIBED ELEVATIONS           = 0.8;0.
/
/----------------------------------------------
/  PHYSICAL PARAMETERS
/----------------------------------------------
/
LAW OF BOTTOM FRICTION          = 0
VELOCITY DIFFUSIVITY            = 0.
/
/----------------------------------------------
/  NUMERICAL PARAMETERS
/----------------------------------------------
/SCHEMES
EQUATIONS                       = 'SAINT-VENANT FV'
/
FINITE VOLUME SCHEME            = 5
H CLIPPING = NO
