/----------------------------------------------------------------------/
/ FILES
/----------------------------------------------------------------------/
 BOUNDARY CONDITIONS FILE : 'geo_rouse-t3d.cli'   
 GEOMETRY FILE            : 'geo_rouse-t3d.slf'
 RESULTS FILE             : 'gai_rouse-t3d.slf'
/----------------------------------------------------------------------/
/ OUTPUTS                                                              /
/----------------------------------------------------------------------/
 VARIABLES FOR GRAPHIC PRINTOUTS : 'U,V,H,B,CS1,N,P,E,1A1,1ES'
 MASS-BALANCE : YES
/----------------------------------------------------------------------/
/ GENERAL OPTIONS                                  
/----------------------------------------------------------------------/ 
 TITLE : 'Rouse profile with GAIA (Coupled with TELEMAC3D)'
/----------------------------------------------------------------------/
/  PHYSICAL OPTIONS
/----------------------------------------------------------------------/
 CLASSES TYPE OF SEDIMENT : CO
 CLASSES SEDIMENT DENSITY : 2650.0
 CLASSES SETTLING VELOCITIES : 0.001
 NUMBER OF LAYERS FOR INITIAL STRATIFICATION : 1
 LAYERS INITIAL THICKNESS : 0.D0
 LAYERS MASS TRANSFER : 0.D0
 LAYERS CRITICAL EROSION SHEAR STRESS OF THE MUD : 0.1
 LAYERS PARTHENIADES CONSTANT : 4.0E-4
 LAYERS MUD CONCENTRATION : 500.D0
 SKIN FRICTION CORRECTION : 0
/----------------------------------------------------------------------/
/ NUMERICAL OPTIONS
/----------------------------------------------------------------------/
 ADVECTION-DIFFUSION SCHEME WITH SETTLING VELOCITY : 1 / SET_DIF scheme

